### HEMCO INPUT FILE ###
# ==================================================================================================
# Category convention:
#  1: Industry
#  2: Power
#  3: Transportation
#  4: Residential
#  5: Agriculture
#  6: Natural
#  7: Plants
#  8: Biomass burning
#  9: Trash burning
# 10: Ship
# 20: Aircraft
# 30: Seabirds

####################################################################################
### BEGIN SECTION SETTINGS
####################################################################################
#

ROOT:                        {DATA_ROOT}/HEMCO
METDIR:                      not_used
Logfile:                     HEMCO.log
DiagnPrefix:                 HEMCO_diagnostics
DiagnFile:                   ./HEMCO_DiagnFile.rc
Wildcard:                    *
Separator:                   /
Unit tolerance:              1
Negative values:             2
Only unitless scale factors: false
Verbose:                     0
Warnings:                    1

#
### END SECTION SETTINGS 

####################################################################################
### BEGIN SECTION EXTENSION SWITCHES
####################################################################################
# Make sure that the ExtNr provided here matches with the ExtNr provided in the base 
# emissions sections. Otherwise, the listed files won't be read!
#
# ExtNr ExtName           on/off  Species 
0       Base              : on    *
# ----- MAIN SWITCHES -----------------------
    --> EMISSIONS              :       true
    --> METEOROLOGY            :       false
    --> CHEMISTRY_INPUT        :       true
# ----- RESTART FIELDS ----------------------
    --> GC_RESTART             :       false
    --> STATE_PSC              :       false
    --> HEMCO_RESTART          :       false
# ----- NESTED GRID FIELDS ------------------
    --> GC_BCs                 :       false
    --> CEDS                   :       true
    --> CEDS_SHIP              :       true
    --> CEDS_VOCs              :       true
    --> CEDS_C2H6              :       true
    --> CH4_EMISSIONS          :       false
    --> C2H6_EDGAR             :       false
    --> C2H6_ZITELY            :       false
    --> QFED                   :       true
    --> ORDONEZ_IODOCARB       :       true
    --> DECAYING_PLANTS        :       true 
    --> AFCID                  :       true 
    --> POET                   :       false
    --> SEABIRDS               :       true
    --> DICE_AFRICA            :       false
    --> TRASH                  :       false
    --> OMI_HTAP_SO2           :       false
# ----- NON-EMISSIONS DATA ------------------
    --> UVALBEDO               :       true
    --> CCM_STRAT_Bry          :       true
    --> GMI_STRAT_OH           :       true
    --> GMI_PROD_LOSS          :       false
    --> UCX_PROD_LOSS          :       false
    --> OMOC_RATIO             :       false
    --> GMD_SFC_CH4            :       true
    --> CMIP6_SFC_CH4          :       false
# OLSON and MODIS read via MAPL not HEMCO in GEOS
    --> OLSON_LANDMAP          :       false
    --> YUAN_MODIS_LAI         :       false
    --> RRTMG                  :       false
    --> SfcVMR                 :       true
    --> OCEAN_O3_DRYDEP        :       true
# --------------------------------------------------------
100     Custom                 : off   -
101     SeaFlux           : on    DMS/ACET/ALD2/MENO3/ETNO3/MOH
103     LightNOx          : on    NO
    --> GEOS-5 flash rates:       false
###    --> OTD-LIS scaling   :       0.355
###    --> OTD-LIS scaling   :       0.634
#C720   --> OTD-LIS scaling   :       1.4152E-3
#C180   --> OTD-LIS scaling   :       1.527e-2
    --> OTD-LIS scaling   :       0.12
    --> CDF table         :       /discover/nobackup/cakelle2/data/light_dist.ott2010.dat
    --> Use CNV_FRC       :       false
    --> OTD-LIS factors   :       false
104     SoilNOx           : on    NO 
    --> Use fertilizer NOx:       true
105     DustDead          : on    DST1/DST2/DST3/DST4
    --> Mass tuning factor:       2.454e-4 
####    --> Mass tuning factor:       4.0e-4 
####    --> Mass tuning factor:       5.0416e-4
#C48    --> Mass tuning factor:       5.0416e-4
#C720   --> Mass tuning factor:       2.3e-4
#C180   --> Mass tuning factor:       3.23e-4
107     SeaSalt                : on    SALA/SALC/SALACL/SALCCL/SALAAL/SALCAL/BrSALA/BrSALC/MOPO/MOPI
    --> SALA lower radius      :       0.01
    --> SALA upper radius      :       0.5
    --> SALC lower radius      :       0.5
    --> SALC upper radius      :       8.0
    --> Reduce SS cold water   :       true
    --> Blowing Snow SS        :       true
    --> NH FYI snow salinity   :       0.1
    --> NH MYI snow salinity   :       0.05
    --> SH FYI snow salinity   :       0.03
    --> SH MYI snow salinity   :       0.015
    --> NH snow age            :       3.0
    --> SH snow age            :       1.5
    --> N per snowflake        :       5.0
    --> Model sea salt Br-     :       false
    --> Br- mass ratio         :       2.11e-3
108     MEGAN                  : on    ISOP/ACET/PRPE/C2H4/ALD2/MOH/EOH/MTPA/MTPO/LIMO/SESQ/SOAP/SOAS
    --> Isoprene scaling       :       1.0
    --> CO2 inhibition         :       true
    --> CO2 conc (ppmv)        :       390.0
    --> Isoprene to SOAP       :       0.015
    --> Isoprene to SOAS       :       0.015
    --> Monoterp to SOAP       :       0.050
    --> Monoterp to SOAS       :       0.050
    --> Othrterp to SOAP       :       0.050
    --> Othrterp to SOAS       :       0.050
111     GFED              : off   NO/CO/ALK4/ACET/MEK/ALD2/PRPE/C3H8/CH2O/C2H6/SO2/NH3/BCPO/BCPI/OCPO/OCPI/POG1/POG2/NAP
    --> GFED4             :       true
    --> GFED_daily        :       false
    --> GFED_3hourly      :       false
    --> Scaling_CO        :       1.05
    --> Scaling_POG1      :       1.27
    --> Scaling_POG2      :       1.27
    --> Scaling_NAP       :       2.75e-4
    --> hydrophilic BC    :       0.2
    --> hydrophilic OC    :       0.5
    --> fraction POG1     :       0.49
    --> CO to SOAP        :       0.013
    --> GFED_subgrid_coag :       false
117     Volcano           : on    SO2
    --> Volcano_Source    :       AeroCom
# use flat degassing file for ops:
#    --> Volcano_Table     :       ./ExtData/AeroCom/sfc/volcanic_CARN_1978-2020_v202005/so2_volcanic_emissions_CARN_v202005.degassing_only.rc
# use degassing and eruptive for reanalysis:
    --> Volcano_Table     :       ./ExtData/AeroCom/sfc/volcanic_CARN_1978-2020_v202005/so2_volcanic_emissions_Carns.$YYYY$MM$DD.rc
    --> Volcano_Climatology :     /discover/nobackup/ewlundgr/data/ExtData/VOLCANO/v2021-09/so2_volcanic_emissions_CARN_v202005.degassing_only.rc
120     Inorg_Iodine      : on    HOI/I2
    --> Emit HOI          :       true
    --> Emit I2           :       true
122     VFEI              : off   NO/CO/ALK4/ACET/MEK/ALD2/PRPE/C3H8/CH2O/C2H6/SO2/NH3/BCPO/BCPI/OCPO/OCPI/HNO2/HCl/ACTA/MGLY/GLYX/EOH/MOH/MTPO/ISOP/BENZ/TOLU/XYLE/SOAP/MACR/MVK/DMS
    --> VFEI_Table        :       /discover/nobackup/cakelle2/data/VFEI/TXT/v0/Y$YYYY/vfeiv0_V1_$YYYY$MM$DD.txt
    --> PBL_frac          :       0.65
    --> MaxHeightM        :       5500.0
    --> Category          :       1
    --> Scaling_BCPO      :       0.8
    --> Scaling_BCPI      :       0.2
    --> Scaling_OCPO      :       0.5
    --> Scaling_OCPI      :       0.5
    --> Scaling_SOAP      :       0.013
### END SECTION EXTENSION SWITCHES 

####################################################################################
### BEGIN SECTION BASE EMISSIONS 
####################################################################################

(((EMISSIONS

#=======================================================================================================================================
# --- CEDS ---
#
# ==> CEDS ship emissions are listed in the ship emissions section below
# ==> CEDS includes trash emissions (Cat=12) from Wiedinmyer et al. (2014)
#=======================================================================================================================================
(((CEDS
#201,211 ind Day-of-week(DOW),Time-of-day(TOD)
#202,212 ene DOW,TOD
#203,213 tra DOW,TOD
#204,214 rco DOW,TOD
#205,215 agr DOW,TOD

#97  NOx ems as NO scale factor
#115 NO2toNO scale factor; CEDS emits all as NO2. Convert NO2 to NO here instead of preprocessing.
#0 CEDS_NO_AGR     /see/ExtData.rc            NOx_agr            2014/1-12/1/0 C xy       kg/m2/s NO    97/115/205/215        5 2
0 CEDS_NO_ENE     /see/ExtData.rc            NOx_ene            2014/1-12/1/0 C xyL=1:11 kg/m2/s NO    97/115/202/212/317    2 2
0 CEDS_NO_IND     /see/ExtData.rc            NOx_ind            2014/1-12/1/0 C xyL=1:15 kg/m2/s NO    97/115/201/211/318    1 2
0 CEDS_NO_TRA     /see/ExtData.rc            NOx_tra            2014/1-12/1/0 C xy       kg/m2/s NO    97/115/203/213        3 2
0 CEDS_NO_RCO     /see/ExtData.rc            NOx_rco            2014/1-12/1/0 C xy       kg/m2/s NO    97/115/204/214        4 2
0 CEDS_NO_SLV     /see/ExtData.rc            NOx_slv            2014/1-12/1/0 C xy       kg/m2/s NO    97/115/201/211        1 2
0 CEDS_NO_WST     /see/ExtData.rc            NOx_wst            2014/1-12/1/0 C xy       kg/m2/s NO    97/115                9 2

#98 NOx ems as NO2 scale factor
#0 CEDS_NO2_AGR     /see/ExtData.rc           NOx_agr            2014/1-12/1/0 C xy       kg/m2/s NO2    98/205/215        5 2
0 CEDS_NO2_ENE     /see/ExtData.rc           NOx_ene            2014/1-12/1/0 C xyL=1:11 kg/m2/s NO2    98/202/212/317    2 2
0 CEDS_NO2_IND     /see/ExtData.rc           NOx_ind            2014/1-12/1/0 C xyL=1:15 kg/m2/s NO2    98/201/211/318    1 2
0 CEDS_NO2_TRA     /see/ExtData.rc           NOx_tra            2014/1-12/1/0 C xy       kg/m2/s NO2    98/203/213        3 2
0 CEDS_NO2_RCO     /see/ExtData.rc           NOx_rco            2014/1-12/1/0 C xy       kg/m2/s NO2    98/204/214        4 2
0 CEDS_NO2_SLV     /see/ExtData.rc           NOx_slv            2014/1-12/1/0 C xy       kg/m2/s NO2    98/201/211        1 2
0 CEDS_NO2_WST     /see/ExtData.rc           NOx_wst            2014/1-12/1/0 C xy       kg/m2/s NO2    98                9 2

#280 COtoSOAP_anth
#301 ODIAC_ANNUALSCALE_2010 (not applied here but is used in HTAP) **********
#302 ODIAC_ANNUALSCALE_2013
0 CEDS_CO_AGR     /see/ExtData.rc            CO_agr            2014/1-12/1/0 C xy       kg/m2/s CO    205/215         5 2
0 CEDS_SOAP_AGR   -                          -                 -             - -        -       SOAP  205/215/280     5 2
0 CEDS_CO_ENE     /see/ExtData.rc            CO_ene            2014/1-12/1/0 C xyL=1:11 kg/m2/s CO    202/212/317     2 2
0 CEDS_SOAP_ENE   -                          -                 -             - -        -       SOAP  202/212/280/317 2 2
0 CEDS_CO_IND     /see/ExtData.rc            CO_ind            2014/1-12/1/0 C xyL=1:15 kg/m2/s CO    201/211/318     1 2
0 CEDS_SOAP_IND   -                          -                 -             - -        -       SOAP  201/211/280/318 1 2
0 CEDS_CO_TRA     /see/ExtData.rc            CO_tra            2014/1-12/1/0 C xy       kg/m2/s CO    203/213         3 2
0 CEDS_SOAP_TRA   -                          -                 -             - -        -       SOAP  203/213/280     3 2
0 CEDS_CO_RCO     /see/ExtData.rc            CO_rco            2014/1-12/1/0 C xy       kg/m2/s CO    204/214         4 2
0 CEDS_SOAP_RCO   -                          -                 -             - -        -       SOAP  204/214/280     4 2
0 CEDS_CO_SLV     /see/ExtData.rc            CO_slv            2014/1-12/1/0 C xy       kg/m2/s CO    201/211         1 2
0 CEDS_SOAP_SLV   -                          -                 -             - -        -       SOAP  201/211/280     1 2
0 CEDS_CO_WST     /see/ExtData.rc            CO_wst            2014/1-12/1/0 C xy       kg/m2/s CO    -               9 2
0 CEDS_SOAP_WST   -                          -                 -             - -        -       SOAP  280             9 2

0 CEDS_NH3_AGR    /see/ExtData.rc           NH3_agr           2014/1-12/1/0 C xy       kg/m2/s NH3   205/215         5 2
0 CEDS_NH3_ENE    /see/ExtData.rc           NH3_ene           2014/1-12/1/0 C xyL=1:11 kg/m2/s NH3   202/212/317     2 2
0 CEDS_NH3_IND    /see/ExtData.rc           NH3_ind           2014/1-12/1/0 C xyL=1:15 kg/m2/s NH3   201/211/318     1 2
0 CEDS_NH3_TRA    /see/ExtData.rc           NH3_tra           2014/1-12/1/0 C xy       kg/m2/s NH3   203/213         3 2
0 CEDS_NH3_RCO    /see/ExtData.rc           NH3_rco           2014/1-12/1/0 C xy       kg/m2/s NH3   204/214         4 2
0 CEDS_NH3_SLV    /see/ExtData.rc           NH3_slv           2014/1-12/1/0 C xy       kg/m2/s NH3   201/211         1 2
0 CEDS_NH3_WST    /see/ExtData.rc           NH3_wst           2014/1-12/1/0 C xy       kg/m2/s NH3   -               9 2

#70 BC2BCPI
#71 BC2BCPO
0 CEDS_BCPI_AGR   /see/ExtData.rc            BC_agr            2014/1-12/1/0 C xy       kg/m2/s BCPI  70/205/215        5 2
0 CEDS_BCPO_AGR   -                          -                 -             - -        -       BCPO  71/205/215        5 2
0 CEDS_BCPI_ENE   /see/ExtData.rc            BC_ene            2014/1-12/1/0 C xyL=1:11 kg/m2/s BCPI  70/202/212/317    2 2
0 CEDS_BCPO_ENE   -                          -                 -             - -        -       BCPO  71/202/212/317    2 2
0 CEDS_BCPI_IND   /see/ExtData.rc            BC_ind            2014/1-12/1/0 C xyL=1:15 kg/m2/s BCPI  70/201/211/318    1 2
0 CEDS_BCPO_IND   -                          -                 -             - -        -       BCPO  71/201/211/318    1 2
0 CEDS_BCPI_TRA   /see/ExtData.rc            BC_tra            2014/1-12/1/0 C xy       kg/m2/s BCPI  70/203/213        3 2
0 CEDS_BCPO_TRA   -                          -                 -             - -        -       BCPO  71/203/213        3 2
0 CEDS_BCPI_RCO   /see/ExtData.rc            BC_rco            2014/1-12/1/0 C xy       kg/m2/s BCPI  70/204/214        4 2
0 CEDS_BCPO_RCO   -                          -                 -             - -        -       BCPO  71/204/214        4 2
0 CEDS_BCPI_SLV   /see/ExtData.rc            BC_slv            2014/1-12/1/0 C xy       kg/m2/s BCPI  70/201/211        1 2
0 CEDS_BCPO_SLV   -                          -                 -             - -        -       BCPO  71/201/211        1 2
0 CEDS_BCPI_WST   /see/ExtData.rc            BC_wst            2014/1-12/1/0 C xy       kg/m2/s BCPI  70                9 2
0 CEDS_BCPO_WST   -                          -                 -             - -        -       BCPO  71                9 2
#72 OC2OCPI
#73 OC2OCPO
#74 POGSCAL
#76 SV2POG1
#77 SV2POG2
0 CEDS_OCPI_AGR   /see/ExtData.rc            OC_agr            2014/1-12/1/0 C xy       kg/m2/s OCPI  72/205/215            5 2
0 CEDS_OCPO_AGR   -                          -                 -             - -        -       OCPO  73/205/215            5 2
0 CEDS_POG1_AGR   -                          -                 -             - -        -       POG1  73/74/76/205/215      5 2
0 CEDS_POG2_AGR   -                          -                 -             - -        -       POG2  73/74/77/205/215      5 2
0 CEDS_OCPI_ENE   /see/ExtData.rc            OC_ene            2014/1-12/1/0 C xyL=1:11 kg/m2/s OCPI  72/202/212/317        2 2
0 CEDS_OCPO_ENE   -                          -                 -             - -        -       OCPO  73/202/212/317        2 2
0 CEDS_POG1_ENE   -                          -                 -             - -        -       POG1  73/74/76/202/212/317  2 2
0 CEDS_POG2_ENE   -                          -                 -             - -        -       POG2  73/74/77/202/212/317  2 2
0 CEDS_OCPI_IND   /see/ExtData.rc            OC_ind            2014/1-12/1/0 C xyL=1:15 kg/m2/s OCPI  72/201/211/318        1 2
0 CEDS_OCPO_IND   -                          -                 -             - -        -       OCPO  73/201/211/318        1 2
0 CEDS_POG1_IND   -                          -                 -             - -        -       POG1  73/74/76/201/211/318  1 2
0 CEDS_POG2_IND   -                          -                 -             - -        -       POG2  73/74/77/201/211/318  1 2
0 CEDS_OCPI_TRA   /see/ExtData.rc            OC_tra            2014/1-12/1/0 C xy       kg/m2/s OCPI  72/203/213            3 2
0 CEDS_OCPO_TRA   -                          -                 -             - -        -       OCPO  73/203/213            3 2
0 CEDS_POG1_TRA   -                          -                 -             - -        -       POG1  73/74/76/203/213      3 2
0 CEDS_POG2_TRA   -                          -                 -             - -        -       POG2  73/74/77/203/213      3 2
0 CEDS_OCPI_RCO   /see/ExtData.rc            OC_rco            2014/1-12/1/0 C xy       kg/m2/s OCPI  72/204/214            4 2
0 CEDS_OCPO_RCO   -                          -                 -             - -        -       OCPO  73/204/214            4 2
0 CEDS_POG1_RCO   -                          -                 -             - -        -       POG1  73/74/76/204/214      4 2
0 CEDS_POG2_RCO   -                          -                 -             - -        -       POG2  73/74/77/204/214      4 2
0 CEDS_OCPI_SLV   /see/ExtData.rc            OC_slv            2014/1-12/1/0 C xy       kg/m2/s OCPI  72/201/211            1 2
0 CEDS_OCPO_SLV   -                          -                 -             - -        -       OCPO  73/201/211            1 2
0 CEDS_POG1_SLV   -                          -                 -             - -        -       POG1  73/74/76/201/211      1 2
0 CEDS_POG2_SLV   -                          -                 -             - -        -       POG2  73/74/77/201/211      1 2
0 CEDS_OCPI_WST   /see/ExtData.rc            OC_wst            2014/1-12/1/0 C xy       kg/m2/s OCPI  72                    9 2
0 CEDS_OCPO_WST   -                          -                 -             - -        -       OCPO  73                    9 2
0 CEDS_POG1_WST   -                          -                 -             - -        -       POG1  73/74/76              9 2
0 CEDS_POG2_WST   -                          -                 -             - -        -       POG2  73/74/77              9 2

#63 SO2toSO4
#66 SO2toPFe
0 CEDS_SO2_AGR    /see/ExtData.rc           SO2_agr           2014/1-12/1/0 C xy       kg/m2/s SO2   205/215           5 2
0 CEDS_SO4_AGR    -                         -                 -             - -        -       SO4   63/205/215        5 2
0 CEDS_pFe_AGR    -                         -                 -             - -        -       pFe   66/205/215        5 2
0 CEDS_SO2_ENE    /see/ExtData.rc           SO2_ene           2014/1-12/1/0 C xyL=1:11 kg/m2/s SO2   202/212/317       2 2
0 CEDS_SO4_ENE    -                         -                 -             - -        -       SO4   63/202/212/317    2 2
0 CEDS_pFe_ENE    -                         -                 -             - -        -       pFe   66/202/212/317    2 2
0 CEDS_SO2_IND    /see/ExtData.rc           SO2_ind           2014/1-12/1/0 C xyL=1:15 kg/m2/s SO2   201/211/318       1 2
0 CEDS_SO4_IND    -                         -                 -             - -        -       SO4   63/201/211/318    1 2
0 CEDS_pFe_IND    -                         -                 -             - -        -       pFe   66/201/211/318    1 2
0 CEDS_SO2_TRA    /see/ExtData.rc           SO2_tra           2014/1-12/1/0 C xy       kg/m2/s SO2   203/213           3 2
0 CEDS_SO4_TRA    -                         -                 -             - -        -       SO4   63/203/213        3 2
0 CEDS_pFe_TRA    -                         -                 -             - -        -       pFe   66/203/213        3 2
0 CEDS_SO2_RCO    /see/ExtData.rc           SO2_rco           2014/1-12/1/0 C xy       kg/m2/s SO2   204/214           4 2
0 CEDS_SO4_RCO    -                         -                 -             - -        -       SO4   63/204/214        4 2
0 CEDS_pFe_RCO    -                         -                 -             - -        -       pFe   66/204/214        4 2
0 CEDS_SO2_SLV    /see/ExtData.rc           SO2_slv           2014/1-12/1/0 C xy       kg/m2/s SO2   201/211           1 2
0 CEDS_SO4_SLV    -                         -                 -             - -        -       SO4   63/201/211        1 2
0 CEDS_pFe_SLV    -                         -                 -             - -        -       pFe   66/201/211        1 2
0 CEDS_SO2_WST    /see/ExtData.rc           SO2_wst           2014/1-12/1/0 C xy       kg/m2/s SO2   -                 9 2
0 CEDS_SO4_WST    -                         -                 -             - -        -       SO4   63                9 2
0 CEDS_pFe_WST    -                         -                 -             - -        -       pFe   66                9 2
)))CEDS

(((CEDS_VOCs
##206,216 Average DOW,TOD used like in RETRO.  ****Maybe I shouldn't apply to _WST ?? or apply to _WST evwh******
#
##8  kg EOH to kg MOH
##9  kg EOH to kg EOH
##24 kg EOH to kg ROH
##92 VOC1 to MOH
##93 VOC1 to EOH
##94 VOC1 to ROH
0 CEDS_MOH_AGR    see/EOH-em-anthro_CMIP_CEDS_$YYYY.nc           EOH_agr           2014/1-12/1/0 C xy       kg/m2/s MOH   206/216/8/92      5 2
0 CEDS_EOH_AGR    -                                              -                 -             - -        -       EOH   206/216/9/93      5 2
0 CEDS_ROH_AGR    -                                              -                 -             - -        -       ROH   206/216/24/94     5 2
0 CEDS_MOH_ENE    see/EOH-em-anthro_CMIP_CEDS_$YYYY.nc           EOH_ene           2014/1-12/1/0 C xyL=1:11 kg/m2/s MOH   206/216/8/92/317  2 2
0 CEDS_EOH_ENE    -                                              -                 -             - -        -       EOH   206/216/9/93/317  2 2
0 CEDS_ROH_ENE    -                                              -                 -             - -        -       ROH   206/216/24/94/317 2 2
0 CEDS_MOH_IND    see/EOH-em-anthro_CMIP_CEDS_$YYYY.nc           EOH_ind           2014/1-12/1/0 C xyL=1:15 kg/m2/s MOH   206/216/8/92/318  1 2
0 CEDS_EOH_IND    -                                              -                 -             - -        -       EOH   206/216/9/93/318  1 2
0 CEDS_ROH_IND    -                                              -                 -             - -        -       ROH   206/216/24/94/318 1 2
0 CEDS_MOH_TRA    see/EOH-em-anthro_CMIP_CEDS_$YYYY.nc           EOH_tra           2014/1-12/1/0 C xy       kg/m2/s MOH   206/216/8/92      3 2
0 CEDS_EOH_TRA    -                                              -                 -             - -        -       EOH   206/216/9/93      3 2
0 CEDS_ROH_TRA    -                                              -                 -             - -        -       ROH   206/216/24/94     3 2
0 CEDS_MOH_RCO    see/EOH-em-anthro_CMIP_CEDS_$YYYY.nc           EOH_rco           2014/1-12/1/0 C xy       kg/m2/s MOH   206/216/8/92      4 2
0 CEDS_EOH_RCO    -                                              -                 -             - -        -       EOH   206/216/9/93      4 2
0 CEDS_ROH_RCO    -                                              -                 -             - -        -       ROH   206/216/24/94     4 2
0 CEDS_MOH_SLV    see/EOH-em-anthro_CMIP_CEDS_$YYYY.nc           EOH_slv           2014/1-12/1/0 C xy       kg/m2/s MOH   206/216/8/92      1 2
0 CEDS_EOH_SLV    -                                              -                 -             - -        -       EOH   206/216/9/93      1 2
0 CEDS_ROH_SLV    -                                              -                 -             - -        -       ROH   206/216/24/94     1 2
0 CEDS_MOH_WST    see/EOH-em-anthro_CMIP_CEDS_$YYYY.nc           EOH_wst           2014/1-12/1/0 C xy       kg/m2/s MOH   206/216/8/92      9 2
0 CEDS_EOH_WST    -                                              -                 -             - -        -       EOH   206/216/9/93      9 2
0 CEDS_ROH_WST    -                                              -                 -             - -        -       ROH   206/216/24/94     9 2

#10 C4H10toALK4
0 CEDS_C4H10_AGR  see/ALK4_butanes-em-anthro_CMIP_CEDS_$YYYY.nc  ALK4_butanes_agr  2014/1-12/1/0 C xy       kg/m2/s ALK4  206/216/10        5 2
0 CEDS_C4H10_ENE  see/ALK4_butanes-em-anthro_CMIP_CEDS_$YYYY.nc  ALK4_butanes_ene  2014/1-12/1/0 C xyL=1:11 kg/m2/s ALK4  206/216/10/317    2 2
0 CEDS_C4H10_IND  see/ALK4_butanes-em-anthro_CMIP_CEDS_$YYYY.nc  ALK4_butanes_ind  2014/1-12/1/0 C xyL=1:15 kg/m2/s ALK4  206/216/10/318    1 2
0 CEDS_C4H10_TRA  see/ALK4_butanes-em-anthro_CMIP_CEDS_$YYYY.nc  ALK4_butanes_tra  2014/1-12/1/0 C xy       kg/m2/s ALK4  206/216/10        3 2
0 CEDS_C4H10_RCO  see/ALK4_butanes-em-anthro_CMIP_CEDS_$YYYY.nc  ALK4_butanes_rco  2014/1-12/1/0 C xy       kg/m2/s ALK4  206/216/10        4 2
0 CEDS_C4H10_SLV  see/ALK4_butanes-em-anthro_CMIP_CEDS_$YYYY.nc  ALK4_butanes_slv  2014/1-12/1/0 C xy       kg/m2/s ALK4  206/216/10        1 2
0 CEDS_C4H10_WST  see/ALK4_butanes-em-anthro_CMIP_CEDS_$YYYY.nc  ALK4_butanes_wst  2014/1-12/1/0 C xy       kg/m2/s ALK4  206/216/10        9 2

#11 C5H12toALK4
0 CEDS_C5H12_AGR  see/ALK4_pentanes-em-anthro_CMIP_CEDS_$YYYY.nc ALK4_pentanes_agr 2014/1-12/1/0 C xy       kg/m2/s ALK4  206/216/11        5 2
0 CEDS_C5H12_ENE  see/ALK4_pentanes-em-anthro_CMIP_CEDS_$YYYY.nc ALK4_pentanes_ene 2014/1-12/1/0 C xyL=1:11 kg/m2/s ALK4  206/216/11/317    2 2
0 CEDS_C5H12_IND  see/ALK4_pentanes-em-anthro_CMIP_CEDS_$YYYY.nc ALK4_pentanes_ind 2014/1-12/1/0 C xyL=1:15 kg/m2/s ALK4  206/216/11/318    1 2
0 CEDS_C5H12_TRA  see/ALK4_pentanes-em-anthro_CMIP_CEDS_$YYYY.nc ALK4_pentanes_tra 2014/1-12/1/0 C xy       kg/m2/s ALK4  206/216/11        3 2
0 CEDS_C5H12_RCO  see/ALK4_pentanes-em-anthro_CMIP_CEDS_$YYYY.nc ALK4_pentanes_rco 2014/1-12/1/0 C xy       kg/m2/s ALK4  206/216/11        4 2
0 CEDS_C5H12_SLV  see/ALK4_pentanes-em-anthro_CMIP_CEDS_$YYYY.nc ALK4_pentanes_slv 2014/1-12/1/0 C xy       kg/m2/s ALK4  206/216/11        1 2
0 CEDS_C5H12_WST  see/ALK4_pentanes-em-anthro_CMIP_CEDS_$YYYY.nc ALK4_pentanes_wst 2014/1-12/1/0 C xy       kg/m2/s ALK4  206/216/11        9 2

#12 C6H14toALK4
0 CEDS_C6H14_AGR  see/ALK4_hexanes-em-anthro_CMIP_CEDS_$YYYY.nc  ALK4_hexanes_agr  2014/1-12/1/0 C xy       kg/m2/s ALK4  206/216/12        5 2
0 CEDS_C6H14_ENE  see/ALK4_hexanes-em-anthro_CMIP_CEDS_$YYYY.nc  ALK4_hexanes_ene  2014/1-12/1/0 C xyL=1:11 kg/m2/s ALK4  206/216/12/317    2 2
0 CEDS_C6H14_IND  see/ALK4_hexanes-em-anthro_CMIP_CEDS_$YYYY.nc  ALK4_hexanes_ind  2014/1-12/1/0 C xyL=1:15 kg/m2/s ALK4  206/216/12/318    1 2
0 CEDS_C6H14_TRA  see/ALK4_hexanes-em-anthro_CMIP_CEDS_$YYYY.nc  ALK4_hexanes_tra  2014/1-12/1/0 C xy       kg/m2/s ALK4  206/216/12        3 2
0 CEDS_C6H14_RCO  see/ALK4_hexanes-em-anthro_CMIP_CEDS_$YYYY.nc  ALK4_hexanes_rco  2014/1-12/1/0 C xy       kg/m2/s ALK4  206/216/12        4 2
0 CEDS_C6H14_SLV  see/ALK4_hexanes-em-anthro_CMIP_CEDS_$YYYY.nc  ALK4_hexanes_slv  2014/1-12/1/0 C xy       kg/m2/s ALK4  206/216/12        1 2
0 CEDS_C6H14_WST  see/ALK4_hexanes-em-anthro_CMIP_CEDS_$YYYY.nc  ALK4_hexanes_wst  2014/1-12/1/0 C xy       kg/m2/s ALK4  206/216/12        9 2

#14 MEKtoACET
#50 CEDS_KET2ACET
0 CEDS_ACET_AGR    see/MEK-em-anthro_CMIP_CEDS_$YYYY.nc          MEK_agr           2014/1-12/1/0 C xy       kg/m2/s ACET   206/216/14/51     5 2
0 CEDS_ACET_ENE    see/MEK-em-anthro_CMIP_CEDS_$YYYY.nc          MEK_agr           2014/1-12/1/0 C xyL=1:11 kg/m2/s ACET   206/216/14/51/317 2 2
0 CEDS_ACET_IND    see/MEK-em-anthro_CMIP_CEDS_$YYYY.nc          MEK_agr           2014/1-12/1/0 C xyL=1:15 kg/m2/s ACET   206/216/14/51/318 1 2
0 CEDS_ACET_TRA    see/MEK-em-anthro_CMIP_CEDS_$YYYY.nc          MEK_agr           2014/1-12/1/0 C xy       kg/m2/s ACET   206/216/14/51     3 2
0 CEDS_ACET_RCO    see/MEK-em-anthro_CMIP_CEDS_$YYYY.nc          MEK_agr           2014/1-12/1/0 C xy       kg/m2/s ACET   206/216/14/51     4 2
0 CEDS_ACET_SLV    see/MEK-em-anthro_CMIP_CEDS_$YYYY.nc          MEK_agr           2014/1-12/1/0 C xy       kg/m2/s ACET   206/216/14/51     1 2
0 CEDS_ACET_WST    see/MEK-em-anthro_CMIP_CEDS_$YYYY.nc          MEK_agr           2014/1-12/1/0 C xy       kg/m2/s ACET   206/216/14/51     9 2

#13 MEKtoMEK
#51 CEDS_KET2MEK
0 CEDS_MEK_AGR    see/MEK-em-anthro_CMIP_CEDS_$YYYY.nc           MEK_agr           2014/1-12/1/0 C xy       kg/m2/s MEK   206/216/13/50     5 2
0 CEDS_MEK_ENE    see/MEK-em-anthro_CMIP_CEDS_$YYYY.nc           MEK_ene           2014/1-12/1/0 C xyL=1:11 kg/m2/s MEK   206/216/13/50/317 2 2
0 CEDS_MEK_IND    see/MEK-em-anthro_CMIP_CEDS_$YYYY.nc           MEK_ind           2014/1-12/1/0 C xyL=1:15 kg/m2/s MEK   206/216/13/50/318 1 2
0 CEDS_MEK_TRA    see/MEK-em-anthro_CMIP_CEDS_$YYYY.nc           MEK_tra           2014/1-12/1/0 C xy       kg/m2/s MEK   206/216/13/50     3 2
0 CEDS_MEK_RCO    see/MEK-em-anthro_CMIP_CEDS_$YYYY.nc           MEK_rco           2014/1-12/1/0 C xy       kg/m2/s MEK   206/216/13/50     4 2
0 CEDS_MEK_SLV    see/MEK-em-anthro_CMIP_CEDS_$YYYY.nc           MEK_slv           2014/1-12/1/0 C xy       kg/m2/s MEK   206/216/13/50     1 2
0 CEDS_MEK_WST    see/MEK-em-anthro_CMIP_CEDS_$YYYY.nc           MEK_wst           2014/1-12/1/0 C xy       kg/m2/s MEK   206/216/13/50     9 2

#15 ALD2toALD2
0 CEDS_ALD2_AGR   see/ALD2-em-anthro_CMIP_CEDS_$YYYY.nc          ALD2_agr          2014/1-12/1/0 C xy       kg/m2/s ALD2  206/216/15        5 2
0 CEDS_ALD2_ENE   see/ALD2-em-anthro_CMIP_CEDS_$YYYY.nc          ALD2_ene          2014/1-12/1/0 C xyL=1:11 kg/m2/s ALD2  206/216/15/317    2 2
0 CEDS_ALD2_IND   see/ALD2-em-anthro_CMIP_CEDS_$YYYY.nc          ALD2_ind          2014/1-12/1/0 C xyL=1:15 kg/m2/s ALD2  206/216/15/318    1 2