### HEMCO INPUT FILE ###
# ==================================================================================================
# Category convention:
#  1: Industry
#  2: Power
#  3: Transportation
#  4: Residential
#  5: Agriculture
#  6: Natural
#  7: Plants
#  8: Biomass burning
#  9: Trash burning
# 10: Ship
# 20: Aircraft
# 30: Seabirds

####################################################################################
### BEGIN SECTION SETTINGS
####################################################################################
#

ROOT:                        {DATA_ROOT}/HEMCO
METDIR:                      not_used
Logfile:                     HEMCO.log
DiagnPrefix:                 HEMCO_diagnostics
DiagnFile:                   ./HEMCO_DiagnFile.rc
Wildcard:                    *
Separator:                   /
Unit tolerance:              1
Negative values:             2
Only unitless scale factors: false
Verbose:                     0
Warnings:                    1

#
### END SECTION SETTINGS 

####################################################################################
### BEGIN SECTION EXTENSION SWITCHES
####################################################################################
# Make sure that the ExtNr provided here matches with the ExtNr provided in the base 
# emissions sections. Otherwise, the listed files won't be read!
#
# ExtNr ExtName           on/off  Species 
0       Base              : on    *
# ----- MAIN SWITCHES -----------------------
    --> EMISSIONS              :       true
    --> METEOROLOGY            :       false
    --> CHEMISTRY_INPUT        :       true
# ----- RESTART FIELDS ----------------------
    --> GC_RESTART             :       false
    --> STATE_PSC              :       false
    --> HEMCO_RESTART          :       false
# ----- NESTED GRID FIELDS ------------------
    --> GC_BCs                 :       false
    --> CH4_EMISSIONS          :       false
    --> C2H6_EDGAR             :       false
    --> C2H6_ZITELY            :       true
    --> QFED                   :       true
    --> ORDONEZ_IODOCARB       :       true
    --> DECAYING_PLANTS        :       true 
    --> POET                   :       true
    --> SEABIRDS               :       true
    --> DICE_AFRICA            :       true 
    --> TRASH                  :       true
    --> OMI_HTAP_SO2           :       true
# ----- NON-EMISSIONS DATA ------------------
    --> UVALBEDO               :       true
    --> CCM_STRAT_Bry          :       true
    --> GMI_STRAT_OH           :       true
    --> GMI_PROD_LOSS          :       false
    --> UCX_PROD_LOSS          :       false
    --> OMOC_RATIO             :       false
    --> GMD_SFC_CH4            :       true
    --> CMIP6_SFC_CH4          :       false
# OLSON and MODIS read via MAPL not HEMCO in GEOS
    --> OLSON_LANDMAP          :       false
    --> YUAN_MODIS_LAI         :       false
    --> RRTMG                  :       false
    --> SfcVMR                 :       true
    --> OCEAN_O3_DRYDEP        :       true
# --------------------------------------------------------
100     Custom                 : off   -
101     SeaFlux           : on    DMS/ACET/ALD2/MENO3/ETNO3/MOH
103     LightNOx          : on    NO
    --> GEOS-5 flash rates:       false
###    --> OTD-LIS scaling   :       0.355
###    --> OTD-LIS scaling   :       0.634
#C720   --> OTD-LIS scaling   :       1.4152E-3
#C180   --> OTD-LIS scaling   :       1.527e-2
    --> OTD-LIS scaling   :       0.1    
    --> CDF table         :       /discover/nobackup/cakelle2/data/light_dist.ott2010.dat
    --> Use CNV_FRC       :       false
    --> OTD-LIS factors   :       false
104     SoilNOx           : on    NO 
    --> Use fertilizer NOx:       true
105     DustDead          : on    DST1/DST2/DST3/DST4
    --> Mass tuning factor:       4.0e-4 
####    --> Mass tuning factor:       5.0416e-4
#C48    --> Mass tuning factor:       5.0416e-4
#C720   --> Mass tuning factor:       2.3e-4
#C180   --> Mass tuning factor:       3.23e-4
107     SeaSalt                : on    SALA/SALC/SALACL/SALCCL/SALAAL/SALCAL/BrSALA/BrSALC/MOPO/MOPI
    --> SALA lower radius      :       0.01
    --> SALA upper radius      :       0.5
    --> SALC lower radius      :       0.5
    --> SALC upper radius      :       8.0
    --> Model sea salt Br-     :       true
    --> Br- mass ratio         :       2.11e-3
108     MEGAN                  : on    ISOP/ACET/PRPE/C2H4/ALD2/MOH/EOH/MTPA/MTPO/LIMO/SESQ/SOAP/SOAS
    --> Isoprene scaling       :       1.0
    --> CO2 inhibition         :       true
    --> CO2 conc (ppmv)        :       390.0
    --> Isoprene to SOAP       :       0.015
    --> Isoprene to SOAS       :       0.015
    --> Monoterp to SOAP       :       0.050
    --> Monoterp to SOAS       :       0.050
    --> Othrterp to SOAP       :       0.050
    --> Othrterp to SOAS       :       0.050
111     GFED              : off   NO/CO/ALK4/ACET/MEK/ALD2/PRPE/C3H8/CH2O/C2H6/SO2/NH3/BCPO/BCPI/OCPO/OCPI/POG1/POG2/NAP
    --> GFED3             :       false
    --> GFED4             :       true
    --> GFED_daily        :       false
    --> GFED_3hourly      :       false
    --> Scaling_CO        :       1.05
    --> Scaling_POG1      :       1.27
    --> Scaling_POG2      :       1.27
    --> Scaling_NAP       :       2.75e-4
    --> hydrophilic BC    :       0.2
    --> hydrophilic OC    :       0.5
    --> fraction POG1     :       0.49
    --> CO to SOAP        :       0.013
117     Volcano           : on    SO2/SO4
    --> Volcano_Source    :       AeroCom
    --> Volcano_Table     :       ./ExtData/AeroCom/sfc/volcanic_v4/Aerocom.so2_volcanic.$YYYY$MM$DD.rc
    --> Scaling_SO2       :       0.95
    --> Scaling_SO4       :       0.05
    --> Cat_Eruptive      :       61
    --> Cat_Degassing     :       62
120     Inorg_Iodine      : on    HOI/I2
    --> Emit HOI          :       true
    --> Emit I2           :       true
121     CH4_WETLANDS      : off   CH4
    --> Wetlands          :       true
    --> Rice              :       true
### END SECTION EXTENSION SWITCHES 

####################################################################################
### BEGIN SECTION BASE EMISSIONS 
####################################################################################

(((EMISSIONS

#=======================================================================================================================================
# --- HTAP ---
#=======================================================================================================================================
0 HTAP_NO_IND ~/data/EDGAR_HTAP_NO_INDUSTRY.generic.01x01.nc    emi_no  2010/1-12/1/0 C xy kg/m2/s NO  201/211 1 1
0 HTAP_NO_POW ~/data/EDGAR_HTAP_NO_ENERGY.generic.01x01.nc      emi_no  2010/1-12/1/0 C xy kg/m2/s NO  202/212 2 1
0 HTAP_NO_TRA ~/data/EDGAR_HTAP_NO_TRANSPORT.generic.01x01.nc   emi_no  2010/1-12/1/0 C xy kg/m2/s NO  203/213 3 1
0 HTAP_NO_RES ~/data/EDGAR_HTAP_NO_RESIDENTIAL.generic.01x01.nc emi_no  2010/1-12/1/0 C xy kg/m2/s NO  204/214 4 1

0 HTAP_CO_IND ~/data/EDGAR_HTAP_CO_INDUSTRY.generic.01x01.nc    emi_co  2010/1-12/1/0 C xy kg/m2/s CO   301/201/211     1 1
0 HTAP_SOAP_IND  -                                              -       -             - -  -       SOAP 301/201/211/280 1 1
0 HTAP_CO_POW ~/data/EDGAR_HTAP_CO_ENERGY.generic.01x01.nc      emi_co  2010/1-12/1/0 C xy kg/m2/s CO   301/202/212     2 1
0 HTAP_SOAP_POW  -                                              -       -             - -  -       SOAP 301/201/211/280 2 1
0 HTAP_CO_TRA ~/data/EDGAR_HTAP_CO_TRANSPORT.generic.01x01.nc   emi_co  2010/1-12/1/0 C xy kg/m2/s CO   301/203/213     3 1
0 HTAP_SOAP_TRA  -                                              -       -             - -  -       SOAP 301/201/211/280 3 1
0 HTAP_CO_RES ~/data/EDGAR_HTAP_CO_RESIDENTIAL.generic.01x01.nc emi_co  2010/1-12/1/0 C xy kg/m2/s CO   301/204/214     4 1
0 HTAP_SOAP_RES  -                                              -       -             - -  -       SOAP 301/201/211/280 4 1

0 HTAP_NH3_IND ~/data/EDGAR_HTAP_NH3_INDUSTRY.generic.01x01.nc    emi_nh3 2010/1-12/1/0 C xy kg/m2/s NH3 201/211 1 1
0 HTAP_NH3_POW ~/data/EDGAR_HTAP_NH3_ENERGY.generic.01x01.nc      emi_nh3 2010/1-12/1/0 C xy kg/m2/s NH3 202/212 2 1
0 HTAP_NH3_TRA ~/data/EDGAR_HTAP_NH3_TRANSPORT.generic.01x01.nc   emi_nh3 2010/1-12/1/0 C xy kg/m2/s NH3 203/213 3 1
0 HTAP_NH3_RES ~/data/EDGAR_HTAP_NH3_RESIDENTIAL.generic.01x01.nc emi_nh3 2010/1-12/1/0 C xy kg/m2/s NH3 204/214 4 1
0 HTAP_NH3_AGR ~/data/EDGAR_HTAP_NH3_AGRICULTURE.generic.01x01.nc emi_nh3 2010/1-12/1/0 C xy kg/m2/s NH3 205/215 5 1

0 HTAP_BCPI_IND ~/data/EDGAR_HTAP_BC_INDUSTRY.generic.01x01.nc    emi_bc  2010/1-12/1/0 C xy kg/m2/s BCPI  201/211/70 1 1
0 HTAP_BCPO_IND -                                                 -       -             - -  -       BCPO  201/211/71 1 1
0 HTAP_BCPI_POW ~/data/EDGAR_HTAP_BC_ENERGY.generic.01x01.nc      emi_bc  2010/1-12/1/0 C xy kg/m2/s BCPI  202/212/70 2 1
0 HTAP_BCPO_POW -                                                 -       -             - -  -       BCPO  202/212/71 2 1
0 HTAP_BCPI_TRA ~/data/EDGAR_HTAP_BC_TRANSPORT.generic.01x01.nc   emi_bc  2010/1-12/1/0 C xy kg/m2/s BCPI  203/213/70 3 1

0 HTAP_BCPO_TRA -                                                 -       -             - -  -       BCPO  203/213/71 3 1
0 HTAP_BCPI_RES ~/data/EDGAR_HTAP_BC_RESIDENTIAL.generic.01x01.nc emi_bc  2010/1-12/1/0 C xy kg/m2/s BCPI  204/214/70 4 1
0 HTAP_BCPO_RES -                                                 -       -             - -  -       BCPO  204/214/71 4 1

0 HTAP_OCPI_IND ~/data/EDGAR_HTAP_OC_INDUSTRY.generic.01x01.nc    emi_oc  2010/1-12/1/0 C xy kg/m2/s OCPI  201/211/72 1 1
0 HTAP_OCPO_IND -                                                 -       -             - -  -       OCPO  201/211/73 1 1
0 HTAP_OCPI_POW ~/data/EDGAR_HTAP_OC_ENERGY.generic.01x01.nc      emi_oc  2010/1-12/1/0 C xy kg/m2/s OCPI  202/212/72 2 1
0 HTAP_OCPO_POW -                                                 -       -             - -  -       OCPO  202/212/73 2 1
0 HTAP_OCPI_TRA ~/data/EDGAR_HTAP_OC_TRANSPORT.generic.01x01.nc   emi_oc  2010/1-12/1/0 C xy kg/m2/s OCPI  203/213/72 3 1
0 HTAP_OCPO_TRA -                                                 -       -             - -  -       OCPO  203/213/73 3 1
0 HTAP_OCPI_RES ~/data/EDGAR_HTAP_OC_RESIDENTIAL.generic.01x01.nc emi_oc  2010/1-12/1/0 C xy kg/m2/s OCPI  204/214/72 4 1 
0 HTAP_OCPO_RES -                                                 -       -             - -  -       OCPO  204/214/73 4 1 

(((.not.OMI_HTAP_SO2
0 HTAP_SO2_IND ~/data/EDGAR_HTAP_SO2_INDUSTRY.generic.01x01.nc    emi_so2 2010/1-12/1/0 C xy kg/m2/s SO2  201/211 1 1
0 HTAP_SO4_IND -                                                  -       -             - -  -       SO4  201/211/63 1 1
0 HTAP_pFe_IND -                                                  -       -             - -  -       pFe  201/211/66 1 1
0 HTAP_SO2_POW ~/data/EDGAR_HTAP_SO2_ENERGY.generic.01x01.nc      emi_so2 2010/1-12/1/0 C xy kg/m2/s SO2  202/212    2 1
0 HTAP_SO4_POW -                                                  -       -             - -  -       SO4  202/212/63 2 1
0 HTAP_pFe_POW -                                                  -       -             - -  -       pFe  202/212/66 2 1
0 HTAP_SO2_TRA ~/data/EDGAR_HTAP_SO2_TRANSPORT.generic.01x01.nc   emi_so2 2010/1-12/1/0 C xy kg/m2/s SO2  203/213    3 1
0 HTAP_SO4_TRA -                                                  -       -             - -  -       SO4  203/213/63 3 1
0 HTAP_pFe_TRA -                                                  -       -             - -  -       pFe  203/213/66 3 1
0 HTAP_SO2_RES ~/data/EDGAR_HTAP_SO2_RESIDENTIAL.generic.01x01.nc emi_so2 2010/1-12/1/0 C xy kg/m2/s SO2  204/214    4 1
0 HTAP_SO4_RES -                                                  -       -             - -  -       SO4  204/214/63 4 1
0 HTAP_pFe_RES -                                                  -       -             - -  -       pFe  204/214/66 4 1
))).not.OMI_HTAP_SO2

(((OMI_HTAP_SO2
0 OMI_HTAP_SO2_ENERGY    /see/ExtData.rc                          sanl1   2017/1-12/1/0 C xy kg/m2/s SO2   202/212    2 2
0 OMI_HTAP_SO4_ENERGY    -                                        -       -             - -  -       SO4   202/212/63 2 2
0 OMI_HTAP_pFe_ENERGY    -                                        -       -             - -  -       pFe   202/212/66 2 2
0 OMI_HTAP_SO2_NONENERGY /see/ExtData.rc                          sanl1   2017/1-12/1/0 C xy kg/m2/s SO2   206/216    2 2
0 OMI_HTAP_SO4_NONENERGY -                                        -       -             - -  -       SO4   206/216/63 2 2
0 OMI_HTAP_pFe_NONENERGY -                                        -       -             - -  -       pFe   206/216/66 2 2
)))OMI_HTAP_SO2

#=======================================================================================================================================
# --- GEIA (natural NH3 only) ---
#=======================================================================================================================================
0 GEIA_NH3_NATU ~/data/NH3_geos.1x1.nc         NH3_NATU    1990/1-12/1/0 C xy  kg/m2/s NH3 - 6 1

#=======================================================================================================================================
# NH3 from sea birds
#=======================================================================================================================================
(((SEABIRDS
0 SEABIRD_NH3   $ROOT/NH3/v2018-04/NH3_Arctic_seabirds.nc  NH3_SEABIRDS 1990/1-12/1/0 C xy  kg/m2/s NH3 - 30 1
)))SEABIRDS

#==============================================================================
# --- POET EOH ---
#==============================================================================
(((POET
0 POET_EOH $ROOT/POET/v2017-03/POET_EOH.geos.2x25.nc EOH 1985/1/1/0 C xy kgC/m2/s EOH 26/47 1 1
)))POET

#=======================================================================================================================================
# --- RETRO ---
#=======================================================================================================================================
0 RETRO_ALK4__A /discover/nobackup/mslong/data/butanes_kgC.nc  emission_flux 2000/1-12/1/0 C xy kg/m2/s ALK4 206/216/42     1/2/3/4 2  
0 RETRO_ALK4__B /discover/nobackup/mslong/data/pentanes_kgC.nc emission_flux 2000/1-12/1/0 C xy kg/m2/s ALK4 206/216/42     1/2/3/4 2  
0 RETRO_ALK4__C /discover/nobackup/mslong/data/hexanes_kgC.nc  emission_flux 2000/1-12/1/0 C xy kg/m2/s ALK4 206/216/42     1/2/3/4 2 
0 RETRO_ACET    /discover/nobackup/mslong/data/ketones_kgC.nc  emission_flux 2000/1-12/1/0 C xy kg/m2/s ACET 206/216/51/40  1/2/3/4 2 
0 RETRO_MEK     -                                              -             -             - -  -       MEK  206/216/50/48  1/2/3/4 2
0 RETRO_ALD2    /discover/nobackup/mslong/data/alkanals_kgC.nc emission_flux 2000/1-12/1/0 C xy kg/m2/s ALD2 206/216/41     1/2/3/4 2 
0 RETRO_PRPE    /discover/nobackup/mslong/data/propene_kgC.nc  emission_flux 2000/1-12/1/0 C xy kg/m2/s PRPE 206/216/49     1/2/3/4 2 
0 RETRO_C3H8    /discover/nobackup/mslong/data/propane_kgC.nc  emission_flux 2000/1-12/1/0 C xy kg/m2/s C3H8 206/216/46     1/2/3/4 2 
0 RETRO_CH2O    /discover/nobackup/mslong/data/methanal.nc     emission_flux 2000/1-12/1/0 C xy kg/m2/s CH2O 206/216     1/2/3/4 2 
0 RETRO_BENZ    /discover/nobackup/mslong/data/benzene_kgC.nc  emission_flux 2000/1-12/1/0 C xy kg/m2/s BENZ 206/216/270/43 1/2/3/4 2 
0 RETRO_TOLU    /discover/nobackup/mslong/data/toluene_kgC.nc  emission_flux 2000/1-12/1/0 C xy kg/m2/s TOLU 206/216/271/55 1/2/3/4 2 
0 RETRO_XYLE    /discover/nobackup/mslong/data/xylene_kgC.nc   emission_flux 2000/1-12/1/0 C xy kg/m2/s XYLE 206/216/272/56 1/2/3/4 2 
0 RETRO_C2H4    /discover/nobackup/mslong/data/ethene_kgC.nc   emission_flux 2000/1-12/1/0 C xy kg/m2/s C2H4 206/216/44     1/2/3/4 2 
0 RETRO_C2H2    /discover/nobackup/mslong/data/ethyne_kgC.nc   emission_flux 2000/1-12/1/0 C xy kg/m2/s C2H2 206/216/59     1/2/3/4 2 

#=======================================================================================================================================
# --- DICE Africa emissions ---
#=======================================================================================================================================
(((DICE_AFRICA
0 DICE_INDUSTRY_CO    /see/ExtData.rc CO    2013/1/1/0 C xy kg/m2/s  CO    201/211/351/402/1008       11 3
0 DICE_INDUSTRY_SOAP  -               -     -          - -  -        SOAP  201/211/280/351/402/1008   11 3
0 DICE_INDUSTRY_NO    /see/ExtData.rc NO    2013/1/1/0 C xy kg/m2/s  NO    201/211/351/406/1008       11 3
0 DICE_INDUSTRY_SO2   /see/ExtData.rc SO2   2013/1/1/0 C xy kg/m2/s  SO2   78/201/211/351/410/1008    11 3
0 DICE_INDUSTRY_SO4   -               -     -          - -  -        SO4   63/201/211/351/410/1008    11 3
0 DICE_INDUSTRY_pFe   -               -     -          - -  -        pFe   78/66/201/211/351/410/1008 11 3
0 DICE_INDUSTRY_BCPI  /see/ExtData.rc BC    2013/1/1/0 C xy kg/m2/s  BCPI  70/201/211/351/402/1008    11 3
0 DICE_INDUSTRY_BCPO  -               -     -          - -  -        BCPO  71/201/211/351/402/1008    11 3
0 DICE_INDUSTRY_OCPI  /see/ExtData.rc OC    2013/1/1/0 C xy kg/m2/s  OCPI  72/201/211/351/402/1008    11 3
0 DICE_INDUSTRY_OCPO  -               -     -          - -  -        OCPO  73/201/211/351/402/1008    11 3
0 DICE_INDUSTRY_PRPE  /see/ExtData.rc PRPE  2013/1/1/0 C xy kgC/m2/s PRPE  201/211/351/402/1008/49       11 3
0 DICE_INDUSTRY_CH2O  /see/ExtData.rc CH2O  2013/1/1/0 C xy kg/m2/s  CH2O  201/211/351/402/1008       11 3
#0 DICE_INDUSTRY_C2H4  /see/ExtData.rc C2H4  2013/1/1/0 C xy kgC/m2/s C2H4  201/211/351/402/1008      11 3
#0 DICE_INDUSTRY_C2H2  /see/ExtData.rc C2H2  2013/1/1/0 C xy kgC/m2/s C2H2  201/211/351/402/1008      11 3
0 DICE_INDUSTRY_C2H6  /see/ExtData.rc C2H6  2013/1/1/0 C xy kgC/m2/s C2H6  201/211/351/402/1008/45       11 3
0 DICE_INDUSTRY_TOLU  /see/ExtData.rc TOLU  2013/1/1/0 C xy kgC/m2/s TOLU  201/211/351/402/1008/55       11 3
0 DICE_INDUSTRY_HCOOH /see/ExtData.rc HCOOH 2013/1/1/0 C xy kgC/m2/s HCOOH 201/211/351/402/1008/68       11 3
#0 DICE_INDUSTRY_MOH   /see/ExtData.rc MOH   2013/1/1/0 C xy kgC/m2/s MOH   201/211/351/402/1008      11 3
0 DICE_INDUSTRY_NH3   /see/ExtData.rc NH3   2013/1/1/0 C xy kg/m2/s  NH3   201/211/351/1008           11 3

0 DICE_ENERGY_CO     /see/ExtData.rc CO   2013/1/1/0 C xy kg/m2/s  CO   202/212/351/403/1008       12 3
0 DICE_ENERGY_SOAP   -               -    -          - -  -        SOAP 202/212/280/351/403/1008   12 3
0 DICE_ENERGY_NO     /see/ExtData.rc NO   2013/1/1/0 C xy kg/m2/s  NO   202/212/351/407/1008       12 3
0 DICE_ENERGY_SO2    /see/ExtData.rc SO2  2013/1/1/0 C xy kg/m2/s  SO2  78/202/212/351/411/1008    12 3
0 DICE_ENERGY_SO4    -               -    -          - -  -        SO4  63/202/212/351/411/1008    12 3
0 DICE_ENERGY_pFe    -               -    -          - -  -        pFe  78/66/202/212/351/411/1008 12 3
0 DICE_ENERGY_BCPI   /see/ExtData.rc BC   2013/1/1/0 C xy kg/m2/s  BCPI 70/202/212/351/403/1008    12 3
0 DICE_ENERGY_BCPO   -               -    -          - -  -        BCPO 71/202/212/351/403/1008    12 3
0 DICE_ENERGY_OCPI   /see/ExtData.rc OC   2013/1/1/0 C xy kg/m2/s  OCPI 72/202/212/351/403/1008    12 3
0 DICE_ENERGY_OCPO   -               -    -          - -  -        OCPO 73/202/212/351/403/1008    12 3
0 DICE_ENERGY_ALK4   /see/ExtData.rc ALK4 2013/1/1/0 C xy kgC/m2/s ALK4 202/212/351/403/1008/42    12 3
0 DICE_ENERGY_ACET   /see/ExtData.rc ACET 2013/1/1/0 C xy kgC/m2/s ACET 202/212/351/403/1008/40    12 3
0 DICE_ENERGY_MEK    /see/ExtData.rc MEK  2013/1/1/0 C xy kgC/m2/s MEK  202/212/351/403/1008/48    12 3
0 DICE_ENERGY_ALD2   /see/ExtData.rc ALD2 2013/1/1/0 C xy kgC/m2/s ALD2 202/212/351/403/1008/41    12 3
0 DICE_ENERGY_RCHO   /see/ExtData.rc RCHO 2013/1/1/0 C xy kgC/m2/s RCHO 202/212/351/403/1008/69    12 3
0 DICE_ENERGY_CH2O   /see/ExtData.rc CH2O 2013/1/1/0 C xy kg/m2/s  CH2O 202/212/351/403/1008       12 3
0 DICE_ENERGY_BENZ   /see/ExtData.rc BENZ 2013/1/1/0 C xy kgC/m2/s BENZ 202/212/351/403/1008/43    12 3
0 DICE_ENERGY_TOLU   /see/ExtData.rc TOLU 2013/1/1/0 C xy kgC/m2/s TOLU 202/212/351/403/1008/55    12 3
0 DICE_ENERGY_XYLE   /see/ExtData.rc XYLE 2013/1/1/0 C xy kgC/m2/s XYLE 202/212/351/403/1008/56    12 3
0 DICE_ENERGY_C2H6   /see/ExtData.rc C2H6 2013/1/1/0 C xy kgC/m2/s C2H6 202/212/351/403/1008/45    12 3
0 DICE_ENERGY_C3H8   /see/ExtData.rc C3H8 2013/1/1/0 C xy kgC/m2/s C3H8 202/212/351/403/1008/46    12 3

0 DICE_TRAFFIC_CO    /see/ExtData.rc CO   2013/1/1/0 C xy kg/m2/s  CO   203/213/351/401/1008       3 3
0 DICE_TRAFFIC_SOAP  -               -    -          - -  -        SOAP 203/213/280/351/401/1008   3 3
0 DICE_TRAFFIC_NO    /see/ExtData.rc NO   2013/1/1/0 C xy kg/m2/s  NO   203/213/351/405/1008       3 3
0 DICE_TRAFFIC_SO2   /see/ExtData.rc SO2  2013/1/1/0 C xy kg/m2/s  SO2  78/203/213/351/409/1008    3 3
0 DICE_TRAFFIC_SO4   -               -    -          - -  -        SO4  63/203/213/351/409/1008    3 3
0 DICE_TRAFFIC_pFe   -               -    -          - -  -        pFe  78/66/203/213/351/409/1008 3 3
0 DICE_TRAFFIC_BCPI  /see/ExtData.rc BC   2013/1/1/0 C xy kg/m2/s  BCPI 70/203/213/351/401/1008    3 3
0 DICE_TRAFFIC_BCPO  -               -    -          - -  -        BCPO 71/203/213/351/401/1008    3 3
0 DICE_TRAFFIC_OCPI  /see/ExtData.rc OC   2013/1/1/0 C xy kg/m2/s  OCPI 72/203/213/351/401/1008    3 3
0 DICE_TRAFFIC_OCPO  -               -    -          - -  -        OCPO 73/203/213/351/401/1008    3 3
0 DICE_TRAFFIC_ALK4  /see/ExtData.rc ALK4 2013/1/1/0 C xy kgC/m2/s ALK4 203/213/351/401/1008/42    3 3
0 DICE_TRAFFIC_ISOP  /see/ExtData.rc ISOP 2013/1/1/0 C xy kgC/m2/s ISOP 203/213/351/401/1008/61    3 3
0 DICE_TRAFFIC_ACET  /see/ExtData.rc ACET 2013/1/1/0 C xy kgC/m2/s ACET 203/213/351/401/1008/40    3 3
0 DICE_TRAFFIC_MEK   /see/ExtData.rc MEK  2013/1/1/0 C xy kgC/m2/s MEK  203/213/351/401/1008/48    3 3
0 DICE_TRAFFIC_ALD2  /see/ExtData.rc ALD2 2013/1/1/0 C xy kgC/m2/s ALD2 203/213/351/401/1008/41    3 3
0 DICE_TRAFFIC_RCHO  /see/ExtData.rc RCHO 2013/1/1/0 C xy kgC/m2/s RCHO 203/213/351/401/1008/69    3 3
0 DICE_TRAFFIC_PRPE  /see/ExtData.rc PRPE 2013/1/1/0 C xy kgC/m2/s PRPE 203/213/351/401/1008/49    3 3
0 DICE_TRAFFIC_CH2O  /see/ExtData.rc CH2O 2013/1/1/0 C xy kg/m2/s  CH2O 203/213/351/401/1008       3 3
#0 DICE_TRAFFIC_C2H4  /see/ExtData.rc C2H4 2013/1/1/0 C xy kgC/m2/s C2H4 203/213/351/401/1008      3 3
0 DICE_TRAFFIC_BENZ  /see/ExtData.rc BENZ 2013/1/1/0 C xy kgC/m2/s BENZ 203/213/351/401/1008/43    3 3
0 DICE_TRAFFIC_TOLU  /see/ExtData.rc TOLU 2013/1/1/0 C xy kgC/m2/s TOLU 203/213/351/401/1008/55    3 3
0 DICE_TRAFFIC_XYLE  /see/ExtData.rc XYLE 2013/1/1/0 C xy kgC/m2/s XYLE 203/213/351/401/1008/56    3 3

0 DICE_RESIDENTIAL_CO    /see/ExtData.rc CO    2013/1/1/0 C xy kg/m2/s  CO    204/214/351/404/1008       4 3
0 DICE_RESIDENTIAL_SOAP  -               -     -          - -  -        SOAP  204/214/280/351/404/1008   4 3
0 DICE_RESIDENTIAL_NO    /see/ExtData.rc NO    2013/1/1/0 C xy kg/m2/s  NO    204/214/351/408/1008       4 3
0 DICE_RESIDENTIAL_SO2   /see/ExtData.rc SO2   2013/1/1/0 C xy kg/m2/s  SO2   78/204/214/351/412/1008    4 3
0 DICE_RESIDENTIAL_SO4   -               -     -          - -  -        SO4   63/204/214/351/412/1008    4 3
0 DICE_RESIDENTIAL_pFe   -               -     -          - -  -        pFe   78/66/204/214/351/412/1008 4 3
0 DICE_RESIDENTIAL_BCPI  /see/ExtData.rc BC    2013/1/1/0 C xy kg/m2/s  BCPI  70/204/214/351/404/1008    4 3
0 DICE_RESIDENTIAL_BCPO  -               -     -          - -  -        BCPO  71/204/214/351/404/1008    4 3
0 DICE_RESIDENTIAL_OCPI  /see/ExtData.rc OC    2013/1/1/0 C xy kg/m2/s  OCPI  72/204/214/351/404/1008    4 3
0 DICE_RESIDENTIAL_OCPO  -               -     -          - -  -        OCPO  73/204/214/351/404/1008    4 3
0 DICE_RESIDENTIAL_ALK4  /see/ExtData.rc ALK4  2013/1/1/0 C xy kgC/m2/s ALK4  204/214/351/404/1008/42    4 3
0 DICE_RESIDENTIAL_PRPE  /see/ExtData.rc PRPE  2013/1/1/0 C xy kgC/m2/s PRPE  204/214/351/404/1008/49    4 3
0 DICE_RESIDENTIAL_CH2O  /see/ExtData.rc CH2O  2013/1/1/0 C xy kg/m2/s  CH2O  204/214/351/404/1008       4 3
#0 DICE_RESIDENTIAL_C2H4  /see/ExtData.rc C2H4  2013/1/1/0 C xy kgC/m2/s C2H4  204/214/351/404/1008      4 3
#0 DICE_RESIDENTIAL_C2H2  /see/ExtData.rc C2H2  2013/1/1/0 C xy kgC/m2/s C2H2  204/214/351/404/1008      4 3
#0 DICE_RESIDENTIAL_MOH   /see/ExtData.rc MOH   2013/1/1/0 C xy kgC/m2/s MOH   204/214/351/404/1008      4 3
0 DICE_RESIDENTIAL_HCOOH /see/ExtData.rc HCOOH 2013/1/1/0 C xy kgC/m2/s HCOOH 204/214/351/404/1008/68    4 3
0 DICE_RESIDENTIAL_NH3   /see/ExtData.rc NH3   2013/1/1/0 C xy kgC/m2/s NH3   204/214/351/1008           4 3
)))DICE_AFRICA

#=======================================================================================================================================
# --- NAP EMISSIONS ---
#=======================================================================================================================================
0 EDGAR_NAP $ROOT/EDGARv42/v2015-02/VOCv2/EDGAR2_1985_FF_IND.1x1geos.nc BENZ 1985/1/1/0 C xy kgC/m2/s NAP 80/81/82/43 1 1

#=======================================================================================================================================
# --- C2H6 ---
#=======================================================================================================================================
(((C2H6_EDGAR
0 EDGAR_C2H6_1A1  /see/ExtData.rc C2H6 2010/1-12/1/0 C xy kg/m2/s C2H6 95/96/206/216 1 1000
0 EDGAR_C2H6_1A1b /see/ExtData.rc C2H6 2010/1-12/1/0 C xy kg/m2/s C2H6 95/96/206/216 1 1000
0 EDGAR_C2H6_1A1c /see/ExtData.rc C2H6 2010/1-12/1/0 C xy kg/m2/s C2H6 95/96/206/216 1 1000
0 EDGAR_C2H6_1A2  /see/ExtData.rc C2H6 2010/1-12/1/0 C xy kg/m2/s C2H6 95/96/206/216 1 1000
0 EDGAR_C2H6_1A3b /see/ExtData.rc C2H6 2010/1-12/1/0 C xy kg/m2/s C2H6 95/96/206/216 1 1000
0 EDGAR_C2H6_1A3c /see/ExtData.rc C2H6 2010/1-12/1/0 C xy kg/m2/s C2H6 95/96/206/216 1 1000
0 EDGAR_C2H6_1A3d /see/ExtData.rc C2H6 2010/1-12/1/0 C xy kg/m2/s C2H6 95/96/206/216 1 1000
0 EDGAR_C2H6_1A4  /see/ExtData.rc C2H6 2010/1-12/1/0 C xy kg/m2/s C2H6 95/96/206/216 1 1000
0 EDGAR_C2H6_1B1a /see/ExtData.rc C2H6 2010/1-12/1/0 C xy kg/m2/s C2H6 95/96/206/216 1 1000
0 EDGAR_C2H6_2    /see/ExtData.rc C2H6 2010/1-12/1/0 C xy kg/m2/s C2H6 95/96/206/216 1 1000
0 EDGAR_C2H6_4F   /see/ExtData.rc C2H6 2010/1-12/1/0 C xy kg/m2/s C2H6 95/96/206/216 1 1000
0 EDGAR_C2H6_6    /see/ExtData.rc C2H6 2010/1-12/1/0 C xy kg/m2/s C2H6 95/96/206/216 1 1000
0 EDGAR_C2H6_7A   /see/ExtData.rc C2H6 2010/1-12/1/0 C xy kg/m2/s C2H6 95/96/206/216 1 1000
)))C2H6_EDGAR

(((C2H6_ZITELY
0 C2H6_2010_anthro   $ROOT/C2H6_2010/v2017-05/C2H6_global_anth_biof.2010$MM.nc ANTHR_C2H6   2010/1-12/1/0 C xy kgC/m2/s C2H6 206/216/45 1/2/3 100
0 C2H6_2010_biofuel  $ROOT/C2H6_2010/v2017-05/C2H6_global_anth_biof.2010$MM.nc BIOFUEL_C2H6 2010/1-12/1/0 C xy kgC/m2/s C2H6 206/216/45 4     100
)))C2H6_ZITELY

#=======================================================================================================================================
# --- Bromocarbon emissions ---
#=======================================================================================================================================
0 LIANG_CHBr3  Bromocarb_Liang2010.nc CHBr3_emission  2000/1/1/0 C xy kg/m2/s CHBr3  39 1 1
0 LIANG_CH2Br2 Bromocarb_Liang2010.nc CH2Br2_emission 2000/1/1/0 C xy kg/m2/s CH2Br2 -  1 1

#==============================================================================
# --- Very-short-lived (VSL) iodocarbon emissions (cf. Carlos Ordonez) ---
#==============================================================================
(((ORDONEZ_IODOCARB
0 ORDONEZ_CH3I   Emissions/CH3I_monthly_emissions_Ordonez_2012_COARDS.nc   CH3I   2000/1-12/1/0 C xy kg/m2/s CH3I   - 1 1
0 ORDONEZ_CH2I2  Emissions/CH2I2_monthly_emissions_Ordonez_2012_COARDS.nc  CH2I2  2000/1-12/1/0 C xy kg/m2/s CH2I2  - 1 1
0 ORDONEZ_CH2ICL Emissions/CH2ICl_monthly_emissions_Ordonez_2012_COARDS.nc CH2ICl 2000/1-12/1/0 C xy kg/m2/s CH2ICl - 1 1
0 ORDONEZ_CH2IBR Emissions/CH2IBr_monthly_emissions_Ordonez_2012_COARDS.nc CH2IBr 2000/1-12/1/0 C xy kg/m2/s CH2IBr - 1 1
)))ORDONEZ_IODOCARB

#=======================================================================================================================================
# --- CH4 emissions ---
#=======================================================================================================================================
### Gas and oil ###
(((CH4_EMISSIONS
0 CH4_GAS__1B2a         $ROOT/CH4/v2014-09/v42_CH4.0.1x0.1.nc  ch4_1B2a       2004-2008/1/1/0 C xy kg/m2/s CH4 - 1 1
0 CH4_GAS__1B2b         $ROOT/CH4/v2014-09/v42_CH4.0.1x0.1.nc  ch4_1B2b       2004-2008/1/1/0 C xy kg/m2/s CH4 - 1 1

### Coal mines ###
0 CH4_COAL__1B1         $ROOT/CH4/v2014-09/v42_CH4.0.1x0.1.nc  ch4_1B1        2004-2008/1/1/0 C xy kg/m2/s CH4 - 2 1

### Livestock ###
0 CH4_LIVESTOCK__4A     $ROOT/CH4/v2014-09/v42_CH4.0.1x0.1.nc  ch4_4A         2004-2008/1/1/0 C xy kg/m2/s CH4 - 3 1
0 CH4_LIVESTOCK__4B     $ROOT/CH4/v2014-09/v42_CH4.0.1x0.1.nc  ch4_4B         2004-2008/1/1/0 C xy kg/m2/s CH4 - 3 1

### Waste ###
0 CH4_WASTE__6A_6C      $ROOT/CH4/v2014-09/v42_CH4.0.1x0.1.nc  ch4_6A_6C      2004-2008/1/1/0 C xy kg/m2/s CH4 - 4 1
0 CH4_WASTE__6B         $ROOT/CH4/v2014-09/v42_CH4.0.1x0.1.nc  ch4_6B         2004-2008/1/1/0 C xy kg/m2/s CH4 - 4 1

### Residential biofuel ###
0 CH4_BIOFUEL__1A4      $ROOT/CH4/v2014-09/v42_CH4.0.1x0.1.nc  ch4_1A4        2004-2008/1/1/0 C xy kg/m2/s CH4 - 5 1

### Other sectors ###